<additional>

  <e1Detector id="0"  lane="4i_0" pos="450" freq="30" file="cross.out" friendlyPos="true"/>
  <e1Detector id="0a" lane="4i_0" pos="0" freq="30" file="cross.out" friendlyPos="true"/>
  <e1Detector id="0b" lane="4i_0" pos="100" freq="30" file="cross.out" friendlyPos="true"/>
  <e1Detector id="0c" lane="4i_0" pos="200" freq="30" file="cross.out" friendlyPos="true"/>
  <e1Detector id="0d" lane="4i_0" pos="300" freq="30" file="cross.out" friendlyPos="true"/>
  <e1Detector id="0e" lane="4i_0" pos="400" freq="30" file="cross.out" friendlyPos="true"/>
  <e1Detector id="0f" lane="4i_0" pos="500" freq="30" file="cross.out" friendlyPos="true"/>


  <e1Detector id="1"  lane="3i_0" pos="450" freq="30" file="cross.out" friendlyPos="true"/>
  <e1Detector id="1a" lane="3i_0" pos="0" freq="30" file="cross.out" friendlyPos="true"/>
  <e1Detector id="1b" lane="3i_0" pos="100" freq="30" file="cross.out" friendlyPos="true"/>
  <e1Detector id="1c" lane="3i_0" pos="200" freq="30" file="cross.out" friendlyPos="true"/>
  <e1Detector id="1d" lane="3i_0" pos="300" freq="30" file="cross.out" friendlyPos="true"/>
  <e1Detector id="1e" lane="3i_0" pos="400" freq="30" file="cross.out" friendlyPos="true"/>
  <e1Detector id="1f" lane="3i_0" pos="500" freq="30" file="cross.out" friendlyPos="true"/>


  <e1Detector id="2"  lane="2i_0" pos="450" freq="30" file="cross.out" friendlyPos="true"/>
  <e1Detector id="2a" lane="2i_0" pos="0" freq="30" file="cross.out" friendlyPos="true"/>
  <e1Detector id="2b" lane="2i_0" pos="100" freq="30" file="cross.out" friendlyPos="true"/>
  <e1Detector id="2c" lane="2i_0" pos="200" freq="30" file="cross.out" friendlyPos="true"/>
  <e1Detector id="2d" lane="2i_0" pos="300" freq="30" file="cross.out" friendlyPos="true"/>
  <e1Detector id="2e" lane="2i_0" pos="400" freq="30" file="cross.out" friendlyPos="true"/>
  <e1Detector id="2f" lane="2i_0" pos="500" freq="30" file="cross.out" friendlyPos="true"/>


  <e1Detector id="3"  lane="1i_0" pos="450" freq="30" file="cross.out" friendlyPos="true"/>
  <e1Detector id="3a" lane="1i_0" pos="0" freq="30" file="cross.out" friendlyPos="true"/>
  <e1Detector id="3b" lane="1i_0" pos="100" freq="30" file="cross.out" friendlyPos="true"/>
  <e1Detector id="3c" lane="1i_0" pos="200" freq="30" file="cross.out" friendlyPos="true"/>
  <e1Detector id="3d" lane="1i_0" pos="300" freq="30" file="cross.out" friendlyPos="true"/>
  <e1Detector id="3e" lane="1i_0" pos="400" freq="30" file="cross.out" friendlyPos="true"/>
  <e1Detector id="3f" lane="1i_0" pos="500" freq="30" file="cross.out" friendlyPos="true"/>

</additional>
